*Heading
** Job name: 3PB_Concrete_Beam_with_Damage-w5 Model name: Concrete_Frame_3PB_with_Damage-w5
** Generated by: Abaqus/CAE 2023
*Preprint, echo=NO, model=NO, history=NO, contact=NO
**
** PARTS
**
*Part, name=Frame
*Node
      1,         200.,          75.,         150.
      2,         200.,          75.,           0.
      3,          25.,          75.,           0.
      4,          25.,          75.,         150.
      5,         200.,         -75.,           0.
      6,          25.,         -75.,           0.
      7,          25.,         -75.,         150.
      8,         200.,         -75.,         150.
      9,         250.,          75.,           0.
     10,         250.,          75.,         150.
     11,         375.,          75.,         150.
     12,         375.,          75.,           0.
     13,         250.,         -75.,         150.
     14,         375.,         -75.,         150.
     15,         375.,         -75.,           0.
     16,         250.,         -75.,           0.
     17,        -250.,          75.,           0.
     18,        -250.,          75.,         150.
     19,        -200.,          75.,         150.
     20,        -200.,          75.,           0.
** ... 19948 like lines cut
*Element, type=C3D8R
   1,  184, 1713, 6249, 1237,    1,   33,  761,   94
   2, 1713, 1714, 6250, 6249,   33,   34,  762,  761
   3, 1714, 1715, 6251, 6250,   34,   35,  763,  762
   4, 1715, 1716, 6252, 6251,   35,   36,  764,  763
   5, 1716, 1717, 6253, 6252,   36,   37,  765,  764
   6, 1717, 1718, 6254, 6253,   37,   38,  766,  765
   7, 1718, 1719, 6255, 6254,   38,   39,  767,  766
   8, 1719, 1720, 6256, 6255,   39,   40,  768,  767
   9, 1720, 1721, 6257, 6256,   40,   41,  769,  768
  10, 1721, 1722, 6258, 6257,   41,   42,  770,  769
  11, 1722, 1723, 6259, 6258,   42,   43,  771,  770
  12, 1723, 1724, 6260, 6259,   43,   44,  772,  771
  13, 1724, 1725, 6261, 6260,   44,   45,  773,  772
  14, 1725, 1726, 6262, 6261,   45,   46,  774,  773
  15, 1726,  199, 1475, 6262,   46,    2,   47,  774
  16, 1237, 6249, 6263, 1238,   94,  761,  775,   93
  17, 6249, 6250, 6264, 6263,  761,  762,  776,  775
  18, 6250, 6251, 6265, 6264,  762,  763,  777,  776
  19, 6251, 6252, 6266, 6265,  763,  764,  778,  777
  20, 6252, 6253, 6267, 6266,  764,  765,  779,  778
** ... 17305 like lines cut
*Nset, nset=Beam_3D, generate
     1,  19968,      1
*Elset, elset=Beam_3D, generate
     1,  17325,      1
*Nset, nset=Face_RP_1
    3,    4,   25,   26,   64,   65,   66,   67,   68,   69,   70,   71,   72,   73,   74,   75
   76,   77,  518,  519,  520,  521,  522,  523,  524,  525,  526,  527,  528,  529,  530,  531
  633,  634,  635,  636,  637,  638,  639,  640, 4989, 4990, 4991, 4992, 4993, 4994, 4995, 4996
 4997, 4998, 4999, 5000, 5001, 5002, 5003, 5004, 5005, 5006, 5007, 5008, 5009, 5010, 5011, 5012
 5013, 5014, 5015, 5016, 5017, 5018, 5019, 5020, 5021, 5022, 5023, 5024, 5025, 5026, 5027, 5028
 5029, 5030, 5031, 5032, 5033, 5034, 5035, 5036, 5037, 5038, 5039, 5040, 5041, 5042, 5043, 5044
*Elset, elset=Face_RP_1, generate
 13201,  13275,      1
*Nset, nset=Face_RP_3
   21,   22,   23,   24,  409,  410,  411,  412,  413,  414,  415,  416,  417,  418,  419,  420
  421,  422,  423,  424,  425,  426,  427,  428,  429,  430,  431,  432,  433,  434,  435,  436
  437,  438,  439,  440,  441,  442,  443,  444, 3225, 3226, 3227, 3228, 3229, 3230, 3231, 3232
 3233, 3234, 3235, 3236, 3237, 3238, 3239, 3240, 3241, 3242, 3243, 3244, 3245, 3246, 3247, 3248
 3249, 3250, 3251, 3252, 3253, 3254, 3255, 3256, 3257, 3258, 3259, 3260, 3261, 3262, 3263, 3264
 3265, 3266, 3267, 3268, 3269, 3270, 3271, 3272, 3273, 3274, 3275, 3276, 3277, 3278, 3279, 3280
*Elset, elset=Face_RP_3, generate
 8026,  8100,     1
*Nset, nset=Face_RP_4
    5,    8,   13,   16,   95,   96,   97,   98,   99,  100,  101,  102,  103,  104,  105,  106
  107,  108,  265,  266,  267,  268,  269,  270,  271,  272,  273,  274,  275,  276,  277,  278
  649,  650,  651,  652,  653,  654,  655,  656, 5213, 5214, 5215, 5216, 5217, 5218, 5219, 5220
 5221, 5222, 5223, 5224, 5225, 5226, 5227, 5228, 5229, 5230, 5231, 5232, 5233, 5234, 5235, 5236
 5237, 5238, 5239, 5240, 5241, 5242, 5243, 5244, 5245, 5246, 5247, 5248, 5249, 5250, 5251, 5252
 5253, 5254, 5255, 5256, 5257, 5258, 5259, 5260, 5261, 5262, 5263, 5264, 5265, 5266, 5267, 5268
*Elset, elset=Face_RP_4, generate
 14326,  14400,      1
** Section: Concrete_Beam_3D_Section
*Solid Section, elset=Beam_3D, material=Concrete
,
*End Part
**  
**
** ASSEMBLY
**
*Assembly, name=Assembly
**  
*Instance, name=Beam-1, part=Frame
*End Instance
**  
*Node
      1,           0.,          75.,          75.
*Nset, nset=RP-1
 1,
*Surface, type=NODE, name=Beam-1_Face_RP_1_CNS_, internal
Beam-1.Face_RP_1, 1.
** Constraint: RP-1_to_Face
*Coupling, constraint name=RP-1_to_Face, ref node=RP-1, surface=Beam-1_Face_RP_1_CNS_
*Distributing, weighting method=UNIFORM, coupling=STRUCTURAL
*End Assembly
** 
** MATERIALS
** 
*Material, name=Concrete
*Density
 2.5e-09,
*Elastic
35500., 0.2
*Concrete Damaged Plasticity
35.,   0.1,  1.16,  0.67, 1e-05
*Concrete Compression Hardening
  59.63,           0.
  90.41, -0.000358545
 111.81, -0.000407822
 123.66, -0.000366276
   0.69,   0.00395971
*Concrete Tension Stiffening
 4.17,          0.
 4.94, 5.64865e-05
 2.28, 0.000238378
 0.08, 0.000347838
*Concrete Compression Damage
       0.,           0.
       0., -0.000358545
       0., -0.000407822
       0., -0.000366276
 0.983571,   0.00395971
*Concrete Tension Damage
   0.,          0.
   0., 5.64865e-05
   0., 0.000238378
 0.96, 0.000347838
** 
** BOUNDARY CONDITIONS
** 
** Name: Support_1 Type: Displacement/Rotation
*Boundary
Beam-1.Face_RP_3, 1, 1
Beam-1.Face_RP_3, 2, 2
Beam-1.Face_RP_3, 3, 3
Beam-1.Face_RP_3, 4, 4
Beam-1.Face_RP_3, 5, 5
Beam-1.Face_RP_3, 6, 6
** Name: Support_2 Type: Displacement/Rotation
*Boundary
Beam-1.Face_RP_4, 1, 1
Beam-1.Face_RP_4, 2, 2
Beam-1.Face_RP_4, 3, 3
Beam-1.Face_RP_4, 4, 4
Beam-1.Face_RP_4, 5, 5
Beam-1.Face_RP_4, 6, 6
** ----------------------------------------------------------------
** 
** STEP: Loading
** 
*Step, name=Loading, nlgeom=YES, inc=300
*Static, stabilize, factor=1e-09, allsdtol=0, continue=NO
0.001, 1., 1e-15, 0.01
** 
** BOUNDARY CONDITIONS
** 
** Name: Loading Type: Displacement/Rotation
*Boundary
RP-1, 1, 1
RP-1, 2, 2, -5.
RP-1, 3, 3
RP-1, 4, 4
RP-1, 5, 5
RP-1, 6, 6
** 
** OUTPUT REQUESTS
** 
*Restart, write, frequency=0
** 
** FIELD OUTPUT: F-Output-1
** 
*Output, field
*Node Output
RF, U
*Element Output, directions=YES
DAMAGEC, DAMAGET, LE, PE, PEEQ, PEMAG, S, STATUS
*Contact Output
CDISP, CSTRESS
** 
** HISTORY OUTPUT: H-Output-1
** 
*Output, history, variable=PRESELECT
*End Step
